LAMMPS (30 Oct 2014)
echo both
units		metal
atom_style	atomic
boundary 	f f f
atom_modify 	sort 1 1

processors 	* * *

variable	zvel index -2.5

variable	length index 200
variable	head index 8
variable	r index 20

variable	offset index 20

variable	xmin equal -20-20
variable	xmax equal 20+20

variable	ymin equal -20-20
variable	ymax equal 20+20

variable	zmin equal -200-20
variable	zmax equal 20

region		box block -40 40  -40 40  -220 20 units box
region		crystal cylinder z 0 0 20 -200 0 units box
region		holder cylinder z 0 0 20 -8 0 units box

# ---------------------------------------------
create_box	1 box
Created orthogonal box = (-40 -40 -220) to (40 40 20)

lattice		fcc 4.078
Lattice spacing in x,y,z = 4.078 4.078 4.078
create_atoms	1 region crystal
Created 14502 atoms

pair_style	eam
pair_coeff	* * Au_u3.eam

neighbor	0.5 bin

# ---------------------------------------------
group		holder region holder
586 atoms in group holder
velocity	holder set 0 0 -2.5 units box

# -----------------------------------------------
compute		pea all pe/atom
compute		kea all ke/atom

dump		dump all custom 100 wave.lammpstrj id element x y z c_pea c_kea

fix		nve all nve

timestep 	0.02
thermo		100
run 		2000
Step Temp E_pair E_mol TotEng Press
0     19.94453   -55097.574            0    -55060.19    -4925.771
Averages over the last 11 of 21 rows, steps 1000 to 2000:
Temp E_pair E_mol TotEng Press
70.52 -55195.2 0 -55063 -113.675
Loop time of 27.4675 on 1 procs for 2000 steps with 14502 atoms

Pair  time (%) = 23.8604 (86.8677)
Neigh time (%) = 2.54309 (9.25853)
Comm  time (%) = 0.348033 (1.26707)
Outpt time (%) = 0.417905 (1.52145)
Other time (%) = 0.298082 (1.08522)
